//
// omnetpp.ini - Main configuration file
//

[General]
network = UltraEthernetCluster
sim-time-limit = 100s
seed-set = ${repetition}

# Parallel simulation settings
parallel-simulation = true
parsim-synchronization-class = "cNullMessageProtocol" 
parsim-communications-class = "cMPICommunications"

# Performance optimization
cmdenv-express-mode = true
cmdenv-performance-display = true
record-eventlog = false

# Statistical collection
warmup-period = 10s
**.scalar-recording = true
**.vector-recording = false  # Disable for large simulations

[Config UltraEthernet_1K]
extends = General
description = "1024-node Ultra Ethernet cluster"

# Network topology
UltraEthernetCluster.numNodes = 1024
UltraEthernetCluster.switchRadix = 64
UltraEthernetCluster.topologyType = "DRAGONFLY"

# Physical layer parameters
**.linkSpeed = 800Gbps
**.fecEnabled = true
**.fecOverhead = 0.12
**.errorRate = 1e-12
**.fecCorrectionBits = 8

# Link layer parameters
**.llrEnabled = true
**.llrTimeout = 1us
**.maxRetransmissions = 3
**.priCompressionRatio = 0.2

# Transport layer parameters
**.profileType = "AI_FULL"
**.packetSprayingEnabled = true
**.reorderingEnabled = true
**.maxReorderBuffer = 256
**.initialCongestionWindow = 10

# Application parameters
**.workloadType = "AI_TRAINING"
**.communicationPattern = "ALLREDUCE"
**.messageSize = 1MB
**.jobSize = 1024
**.communicationIntensity = 0.8

# INC parameters
**.incProcessingEnabled = true
**.processingLatency = 100ns
**.maxConcurrentOperations = 16

[Config UltraEthernet_10K]
extends = UltraEthernet_1K
description = "10,000-node Ultra Ethernet cluster"

UltraEthernetCluster.numNodes = 10000
UltraEthernetCluster.numPartitions = 16

# Optimizations for large scale
**.vector-recording = false
**.scalar-recording = true
cmdenv-status-frequency = 10000s

[Config Performance_Comparison]
extends = UltraEthernet_1K
description = "Performance comparison with baselines"

# Multiple runs for statistical significance
repeat = 10

# Baseline comparison parameters
**.enableBaselineComparison = true
**.roceBaselineFile = "roce_baseline.dat"
**.infinibandBaselineFile = "infiniband_baseline.dat"

# Detailed performance measurement
**.measurementInterval = 1ms
**.enableDetailedStats = true

[Config Parameter_Sweep]
extends = UltraEthernet_1K
description = "Parameter sensitivity analysis"

# Sweep congestion control parameters
**.initialCongestionWindow = ${cwnd=5,10,20,40}
**.packetSprayingEnabled = ${spray=true,false}
**.maxReorderBuffer = ${buffer=128,256,512,1024}

# Analysis
output-scalar-file = results/sweep_${cwnd}_${spray}_${buffer}.sca
output-vector-file = results/sweep_${cwnd}_${spray}_${buffer}.vec